<?xml version="1.0" encoding="UTF-8"?>

<!-- generated on seg 02 nov 2020 09:48:01 by Eclipse SUMO netedit Version 1.7.0
<configuration xmlns:xsi="http://www.w3.org/2001/XMLSchema-instance" xsi:noNamespaceSchemaLocation="http://sumo.dlr.de/xsd/netconvertConfiguration.xsd">

    <output>
        <output-file value="/home/rogerio/routing_test.net.xml"/>
    </output>

    <processing>
        <offset.disable-normalization value="true"/>
    </processing>

    <junctions>
        <no-turnarounds value="true"/>
    </junctions>

    <report>
        <aggregate-warnings value="5"/>
    </report>

</configuration>
-->

<net version="1.6" junctionCornerDetail="5" limitTurnSpeed="5.50" xmlns:xsi="http://www.w3.org/2001/XMLSchema-instance" xsi:noNamespaceSchemaLocation="http://sumo.dlr.de/xsd/net_file.xsd">

    <location netOffset="0.00,0.00" convBoundary="0.00,-50.00,300.00,50.00" origBoundary="10000000000.00,10000000000.00,-10000000000.00,-10000000000.00" projParameter="!"/>

    <edge id=":N2_0" function="internal">
        <lane id=":N2_0_0" index="0" speed="8.34" length="6.20" shape="98.34,-4.80 100.28,-4.90 101.90,-5.21 103.20,-5.72 104.18,-6.44"/>
    </edge>
    <edge id=":N2_1" function="internal">
        <lane id=":N2_1_0" index="0" speed="7.11" length="4.40" shape="98.34,-1.60 99.46,-1.50 100.49,-1.19 101.44,-0.68 102.30,0.04"/>
    </edge>
    <edge id=":N3_0" function="internal">
        <lane id=":N3_0_0" index="0" speed="3.90" length="2.58" shape="148.87,46.61 149.43,47.03 150.00,47.17 150.57,47.03 151.13,46.61"/>
    </edge>
    <edge id=":N4_0" function="internal">
        <lane id=":N4_0_0" index="0" speed="3.90" length="2.58" shape="148.87,-51.13 149.43,-51.56 150.00,-51.70 150.57,-51.56 151.13,-51.13"/>
    </edge>
    <edge id=":N5_0" function="internal">
        <lane id=":N5_0_0" index="0" speed="8.34" length="6.20" shape="195.82,-6.44 196.80,-5.72 198.10,-5.21 199.72,-4.90 201.66,-4.80"/>
    </edge>
    <edge id=":N5_1" function="internal">
        <lane id=":N5_1_0" index="0" speed="7.11" length="4.40" shape="197.70,0.04 198.56,-0.68 199.51,-1.19 200.54,-1.50 201.66,-1.60"/>
    </edge>

    <edge id="N1N2" from="N1" to="N2" priority="-1">
        <lane id="N1N2_0" index="0" speed="13.89" length="98.34" shape="0.00,-4.80 98.34,-4.80"/>
        <lane id="N1N2_1" index="1" speed="13.89" length="98.34" shape="0.00,-1.60 98.34,-1.60"/>
    </edge>
    <edge id="N2N3" from="N2" to="N3" priority="-1">
        <lane id="N2N3_0" index="0" speed="13.89" length="65.85" shape="102.30,0.04 148.87,46.61"/>
    </edge>
    <edge id="N2N4" from="N2" to="N4" priority="-1">
        <lane id="N2N4_0" index="0" speed="13.89" length="63.20" shape="104.18,-6.44 148.87,-51.13"/>
    </edge>
    <edge id="N3N5" from="N3" to="N5" priority="-1">
        <lane id="N3N5_0" index="0" speed="13.89" length="65.85" shape="151.13,46.61 197.70,0.04"/>
    </edge>
    <edge id="N4N5" from="N4" to="N5" priority="-1">
        <lane id="N4N5_0" index="0" speed="13.89" length="63.20" shape="151.13,-51.13 195.82,-6.44"/>
    </edge>
    <edge id="N5N6" from="N5" to="N6" priority="-1">
        <lane id="N5N6_0" index="0" speed="13.89" length="98.34" shape="201.66,-4.80 300.00,-4.80"/>
        <lane id="N5N6_1" index="1" speed="13.89" length="98.34" shape="201.66,-1.60 300.00,-1.60"/>
    </edge>

    <junction id="N1" type="dead_end" x="0.00" y="0.00" incLanes="" intLanes="" shape="0.00,0.00 0.00,-6.40"/>
    <junction id="N2" type="priority" x="100.00" y="0.00" incLanes="N1N2_0 N1N2_1" intLanes=":N2_0_0 :N2_1_0" shape="101.17,1.17 103.43,-1.09 103.12,-2.08 103.32,-2.73 103.75,-3.49 104.41,-4.35 105.31,-5.31 103.05,-7.57 102.00,-6.92 101.28,-6.69 100.44,-6.53 99.45,-6.43 98.34,-6.40 98.34,0.00 99.39,0.13 99.88,0.29 100.34,0.52 100.77,0.81">
        <request index="0" response="00" foes="00" cont="0"/>
        <request index="1" response="00" foes="00" cont="0"/>
    </junction>
    <junction id="N3" type="priority" x="150.00" y="50.00" incLanes="N2N3_0" intLanes=":N3_0_0" shape="152.26,47.74 150.00,45.47 147.74,47.74 149.25,48.74 150.00,48.87 150.75,48.74 151.51,48.37">
        <request index="0" response="0" foes="0" cont="0"/>
    </junction>
    <junction id="N4" type="priority" x="150.00" y="-50.00" incLanes="N2N4_0" intLanes=":N4_0_0" shape="150.00,-50.00 152.26,-52.26 150.75,-53.27 150.00,-53.39 149.25,-53.27 148.49,-52.89 147.74,-52.26">
        <request index="0" response="0" foes="0" cont="0"/>
    </junction>
    <junction id="N5" type="priority" x="200.00" y="0.00" incLanes="N4N5_0 N3N5_0" intLanes=":N5_0_0 :N5_1_0" shape="201.66,0.00 201.66,-6.40 199.56,-6.53 198.72,-6.69 198.00,-6.92 197.41,-7.21 196.95,-7.57 194.69,-5.31 196.25,-3.49 196.68,-2.73 196.88,-2.08 196.84,-1.53 196.57,-1.09 198.83,1.17 199.66,0.52 200.12,0.29 200.61,0.13 201.12,0.03">
        <request index="0" response="00" foes="00" cont="0"/>
        <request index="1" response="00" foes="00" cont="0"/>
    </junction>
    <junction id="N6" type="dead_end" x="300.00" y="0.00" incLanes="N5N6_0 N5N6_1" intLanes="" shape="300.00,-6.40 300.00,0.00"/>

    <connection from="N1N2" to="N2N4" fromLane="0" toLane="0" via=":N2_0_0" dir="r" state="M"/>
    <connection from="N1N2" to="N2N3" fromLane="1" toLane="0" via=":N2_1_0" dir="l" state="M"/>
    <connection from="N2N3" to="N3N5" fromLane="0" toLane="0" via=":N3_0_0" dir="r" state="M"/>
    <connection from="N2N4" to="N4N5" fromLane="0" toLane="0" via=":N4_0_0" dir="l" state="M"/>
    <connection from="N3N5" to="N5N6" fromLane="0" toLane="1" via=":N5_1_0" dir="l" state="M"/>
    <connection from="N4N5" to="N5N6" fromLane="0" toLane="0" via=":N5_0_0" dir="r" state="M"/>

    <connection from=":N2_0" to="N2N4" fromLane="0" toLane="0" dir="r" state="M"/>
    <connection from=":N2_1" to="N2N3" fromLane="0" toLane="0" dir="l" state="M"/>
    <connection from=":N3_0" to="N3N5" fromLane="0" toLane="0" dir="r" state="M"/>
    <connection from=":N4_0" to="N4N5" fromLane="0" toLane="0" dir="l" state="M"/>
    <connection from=":N5_0" to="N5N6" fromLane="0" toLane="0" dir="r" state="M"/>
    <connection from=":N5_1" to="N5N6" fromLane="0" toLane="1" dir="l" state="M"/>

</net>
