<?xml version="1.0" encoding="UTF-8"?>

<!-- generated on seg 02 nov 2020 09:51:56 by Eclipse SUMO netedit Version 1.7.0
<configuration xmlns:xsi="http://www.w3.org/2001/XMLSchema-instance" xsi:noNamespaceSchemaLocation="http://sumo.dlr.de/xsd/netconvertConfiguration.xsd">

    <output>
        <output-file value="/home/rogerio/routing_test.net.xml"/>
    </output>

    <processing>
        <offset.disable-normalization value="true"/>
    </processing>

    <junctions>
        <no-turnarounds value="true"/>
    </junctions>

    <netedit>
        <route-files value="/home/rogerio/routing_test.rou.xml"/>
    </netedit>

    <report>
        <aggregate-warnings value="5"/>
    </report>

</configuration>
-->

<routes xmlns:xsi="http://www.w3.org/2001/XMLSchema-instance" xsi:noNamespaceSchemaLocation="http://sumo.dlr.de/xsd/routes_file.xsd">
    <flow id="flow_0" begin="0.00" from="N1N2" to="N5N6" via="N2N3 N3N5" end="3600.00" vehsPerHour="1800.00"/>
    <flow id="flow_1" begin="0.00" from="N1N2" to="N5N6" via="N2N4 N4N5" end="3600.00" vehsPerHour="1800.00"/>
</routes>
